

-------- PAES --------


PARAMETERS:
   Input file: ./data/samples.txt
   Output file: ./output/output
   AES mode: encrypt
   Key size: 192
   Device: gpu
   File size: 700 bytes


Global work size is 64
Local work size is 8
Loading OpenCL source code...
clCreateContextFromType...
clGetContextInfo...

Device: Mali-T628

clCreateCommandQueue...
Generating the round keys...
clCreateProgramWithSource...
clBuildProgram...
clCreateKernel...
clCreateBuffer & co...
nan ms	0.000000 watt
nan ms	0.000000 watt
8.116071 ms	0.464000 watt
8.070796 ms	0.824000 watt
8.097345 ms	1.220000 watt
8.300000 ms	1.618000 watt
8.070796 ms	2.012000 watt
8.070175 ms	1.940000 watt
8.079646 ms	1.978000 watt
8.115044 ms	1.978000 watt
8.252252 ms	1.972000 watt
8.070796 ms	1.976000 watt
8.088496 ms	1.984000 watt
8.008696 ms	1.980000 watt
8.044248 ms	1.980000 watt
8.327273 ms	2.000000 watt
8.216216 ms	1.998000 watt
8.351852 ms	1.994000 watt
8.324074 ms	2.040000 watt
8.079646 ms	2.082000 watt
8.309091 ms	2.110000 watt
8.070175 ms	2.148000 watt
8.150442 ms	2.186000 watt
8.008772 ms	2.140000 watt
8.017094 ms	2.098000 watt
8.362637 ms	2.116000 watt
20.214286 ms	2.134000 watt
8.000000 ms	2.094000 watt
8.034188 ms	2.114000 watt
8.153153 ms	2.130000 watt
8.238938 ms	2.076000 watt
8.061947 ms	2.022000 watt
8.008621 ms	2.024000 watt
7.991379 ms	2.024000 watt
8.052632 ms	2.024000 watt
8.290909 ms	2.020000 watt
8.132743 ms	2.014000 watt
8.026316 ms	2.014000 watt
8.088496 ms	1.998000 watt
8.053097 ms	1.982000 watt
8.321101 ms	1.976000 watt
8.061947 ms	1.980000 watt
8.026316 ms	1.980000 watt
8.088496 ms	1.974000 watt
8.017544 ms	1.976000 watt
8.288288 ms	1.994000 watt
8.061947 ms	1.990000 watt
8.061947 ms	1.990000 watt
8.053097 ms	1.996000 watt
8.088496 ms	1.992000 watt
8.336364 ms	1.974000 watt
8.070175 ms	1.982000 watt
8.070175 ms	1.998000 watt
8.107143 ms	1.996000 watt
8.061404 ms	1.998000 watt
8.297297 ms	2.002000 watt
8.088496 ms	1.994000 watt
8.079646 ms	1.978000 watt
8.132743 ms	1.988000 watt
8.053097 ms	1.984000 watt
8.297297 ms	1.980000 watt
8.026087 ms	1.986000 watt
8.061947 ms	2.006000 watt
8.070175 ms	1.994000 watt
8.062500 ms	2.000000 watt
8.300000 ms	2.002000 watt
8.088496 ms	1.996000 watt
8.116071 ms	1.976000 watt
8.097345 ms	1.978000 watt
8.052632 ms	1.972000 watt
8.243243 ms	1.970000 watt
8.052632 ms	1.976000 watt
8.089286 ms	1.974000 watt
8.123894 ms	1.974000 watt
8.052632 ms	1.978000 watt
8.234234 ms	1.986000 watt
8.070796 ms	1.980000 watt
8.070796 ms	1.984000 watt
8.070175 ms	1.986000 watt
8.098214 ms	1.984000 watt
8.272727 ms	1.978000 watt
8.132743 ms	1.986000 watt
8.106195 ms	1.980000 watt
8.116071 ms	1.976000 watt
8.123894 ms	1.980000 watt


----- It ends here... -----


