

-------- PAES --------


PARAMETERS:
   Input file: ./data/samples.txt
   Output file: ./output/output
   AES mode: encrypt
   Key size: 256
   Device: gpu
   File size: 700 bytes


Global work size is 64
Local work size is 8
Loading OpenCL source code...
clCreateContextFromType...
clGetContextInfo...

Device: Mali-T628

clCreateCommandQueue...
Generating the round keys...
clCreateProgramWithSource...
clBuildProgram...
clCreateKernel...
clCreateBuffer & co...
nan ms	0.000000 watt
nan ms	0.000000 watt
9.427083 ms	0.400000 watt
9.397959 ms	0.788000 watt
9.489583 ms	1.200000 watt
9.275510 ms	1.616000 watt
9.329897 ms	2.032000 watt
9.726316 ms	2.044000 watt
9.412371 ms	2.072000 watt
9.381443 ms	2.078000 watt
9.418367 ms	2.074000 watt
9.406250 ms	2.070000 watt
9.631579 ms	2.076000 watt
9.412371 ms	2.074000 watt
9.418367 ms	2.068000 watt
9.360825 ms	2.072000 watt
9.432990 ms	2.076000 watt
9.849462 ms	2.070000 watt
9.336735 ms	2.082000 watt
9.326531 ms	2.094000 watt
9.212121 ms	2.104000 watt
9.306122 ms	2.120000 watt
9.463918 ms	2.132000 watt
9.336735 ms	2.124000 watt
9.170000 ms	2.132000 watt
9.240000 ms	2.142000 watt
9.190000 ms	2.146000 watt
9.494845 ms	2.154000 watt
9.202020 ms	2.164000 watt
9.262626 ms	2.172000 watt
9.252525 ms	2.166000 watt
9.309278 ms	2.162000 watt
9.797872 ms	2.146000 watt
9.275510 ms	2.130000 watt
9.422680 ms	2.102000 watt
9.402062 ms	2.086000 watt
9.391753 ms	2.068000 watt
9.849462 ms	2.064000 watt
9.272727 ms	2.068000 watt
9.329897 ms	2.072000 watt
9.510417 ms	2.070000 watt
9.381443 ms	2.074000 watt
9.755319 ms	2.080000 watt
9.406250 ms	2.078000 watt
9.484536 ms	2.078000 watt
9.412371 ms	2.082000 watt
9.329897 ms	2.078000 watt
9.625000 ms	2.072000 watt
9.329897 ms	2.076000 watt
9.357143 ms	2.076000 watt
9.412371 ms	2.072000 watt
9.422680 ms	2.074000 watt
9.705263 ms	2.080000 watt
9.357143 ms	2.074000 watt
9.510417 ms	2.070000 watt
9.371134 ms	2.074000 watt
9.515464 ms	2.070000 watt
9.726316 ms	2.064000 watt
9.316327 ms	2.068000 watt
9.360825 ms	2.094000 watt
9.387755 ms	2.090000 watt
9.427083 ms	2.092000 watt
9.593750 ms	2.098000 watt
9.568421 ms	2.094000 watt
9.367347 ms	2.072000 watt
9.443299 ms	2.076000 watt
9.350515 ms	2.074000 watt
9.631579 ms	2.086000 watt
9.371134 ms	2.090000 watt
9.397959 ms	2.090000 watt
9.381443 ms	2.086000 watt
9.402062 ms	2.090000 watt
9.652632 ms	2.078000 watt
9.391753 ms	2.074000 watt
9.255102 ms	2.084000 watt
9.336735 ms	2.088000 watt
9.350515 ms	2.084000 watt
9.541667 ms	2.078000 watt
9.275510 ms	2.082000 watt
9.406250 ms	2.070000 watt
9.402062 ms	2.064000 watt
9.298969 ms	2.066000 watt
9.673684 ms	2.068000 watt
9.447917 ms	2.064000 watt
9.443299 ms	2.064000 watt
9.326531 ms	2.068000 watt
9.391753 ms	2.068000 watt
9.547368 ms	2.070000 watt
9.659574 ms	2.076000 watt
9.945055 ms	2.124000 watt
9.381443 ms	2.184000 watt
9.416667 ms	2.226000 watt
9.621053 ms	2.250000 watt
9.387755 ms	2.244000 watt
9.447917 ms	2.204000 watt
9.412371 ms	2.146000 watt
9.453608 ms	2.102000 watt


----- It ends here... -----


