

-------- PAES --------


PARAMETERS:
   Input file: ./data/samples.txt
   Output file: ./output/output
   AES mode: encrypt
   Key size: 256
   Device: gpu
   File size: 700 bytes


Global work size is 64
Local work size is 8
Loading OpenCL source code...
clCreateContextFromType...
clGetContextInfo...

Device: Mali-T628

clCreateCommandQueue...
Generating the round keys...
clCreateProgramWithSource...
clBuildProgram...
clCreateKernel...
clCreateBuffer & co...
nan ms	0.000000 watt
nan ms	0.000000 watt
8.854369 ms	0.428000 watt
8.798077 ms	0.840000 watt
8.673077 ms	1.290000 watt
8.865385 ms	1.740000 watt
8.873786 ms	2.194000 watt
9.068627 ms	2.218000 watt
8.902913 ms	2.256000 watt
8.594340 ms	2.260000 watt
8.730769 ms	2.260000 watt
8.817308 ms	2.276000 watt
11.506173 ms	2.276000 watt
8.807692 ms	2.278000 watt
8.864078 ms	2.274000 watt
8.855769 ms	2.276000 watt
8.864078 ms	2.258000 watt
8.922330 ms	2.256000 watt
8.740385 ms	2.252000 watt
8.647619 ms	2.258000 watt
8.844660 ms	2.258000 watt
8.742857 ms	2.256000 watt
9.029412 ms	2.260000 watt
8.846154 ms	2.264000 watt
8.711538 ms	2.256000 watt
8.798077 ms	2.258000 watt
8.865385 ms	2.262000 watt
9.000000 ms	2.260000 watt
8.922330 ms	2.260000 watt
8.893204 ms	2.308000 watt
8.798077 ms	2.308000 watt
8.854369 ms	2.304000 watt
9.108911 ms	2.304000 watt
8.807692 ms	2.302000 watt
8.836538 ms	2.254000 watt
8.834951 ms	2.254000 watt
8.704762 ms	2.254000 watt
8.921569 ms	2.250000 watt
8.865385 ms	2.254000 watt
8.740385 ms	2.260000 watt
8.788462 ms	2.260000 watt
8.778846 ms	2.260000 watt
11.898734 ms	2.266000 watt
8.826923 ms	2.256000 watt
8.815534 ms	2.252000 watt
8.854369 ms	2.250000 watt
8.769231 ms	2.256000 watt
9.138614 ms	2.252000 watt
8.778846 ms	2.260000 watt
8.825243 ms	2.266000 watt
8.742857 ms	2.266000 watt
8.740385 ms	2.274000 watt
9.049020 ms	2.278000 watt
8.778846 ms	2.276000 watt
8.788462 ms	2.270000 watt
8.778846 ms	2.272000 watt
8.865385 ms	2.260000 watt
9.079208 ms	2.256000 watt
8.714286 ms	2.256000 watt
8.750000 ms	2.278000 watt
8.759615 ms	2.274000 watt
8.798077 ms	2.272000 watt
9.118812 ms	2.276000 watt
8.817308 ms	2.276000 watt
8.941748 ms	2.256000 watt
8.759615 ms	2.264000 watt
8.834951 ms	2.268000 watt
9.039216 ms	2.264000 watt
8.769231 ms	2.270000 watt
8.852941 ms	2.272000 watt
8.761905 ms	2.264000 watt
8.817308 ms	2.262000 watt
8.970588 ms	2.266000 watt
8.798077 ms	2.262000 watt
8.796117 ms	2.258000 watt
8.711538 ms	2.262000 watt
8.798077 ms	2.266000 watt
9.130000 ms	2.262000 watt
8.761905 ms	2.264000 watt
8.721154 ms	2.268000 watt
8.411215 ms	2.262000 watt
8.800000 ms	2.278000 watt
9.130000 ms	2.282000 watt
8.912621 ms	2.280000 watt
8.828571 ms	2.278000 watt
8.834951 ms	2.284000 watt
8.855769 ms	2.262000 watt
8.970588 ms	2.258000 watt
8.836538 ms	2.262000 watt
8.766990 ms	2.262000 watt
8.826923 ms	2.258000 watt
8.778846 ms	2.264000 watt


----- It ends here... -----


